LTspice 24.1.9 for Windows
Circuit: C:\Users\Mohammad Amash\Documents\LTspice\RC_Low_Pass.net
Start Time: Thu Jun 19 15:32:55 2025
solver = Normal
Maximum thread count: 12
tnom = 27
temp = 27
method = trap
.OP point found by inspection.
Total elapsed time: 0.037 seconds.

Files loaded:
C:\Users\Mohammad Amash\Documents\LTspice\RC_Low_Pass.net

